# Simplest-possible 1W IRF510 amp

.model IRF510 NMOS KP=.124 VTO=2.7

Vdd (vdd 0) DC 12

# Input source 2Vp 3MHz
Vin (vin 0) AC 10 sin(0 10 3e6)
Rvin (vin 1) 50

# Input load
Rlin (1 0) 50

# Input coupling
C1 (1 g) 0.1u

# Gate bias
Rbias (g 2) 1k
Vbias (2 0) DC 4

# The workhorse
M1 (d g 0 0) IRF510

# Decoupling RFC
L1 (vdd d) 15u

# Output

C2 (d fin) 0.1u
Rl (out 0) 50

# - option 1: no filtering
Rdummy (fin out) 0

# - option 2: lowpass filter f=3 MHz, Q=3, BW=1MHz
#   (http://www.vk2zay.net/calculators/piMatchingNetwork.php)
#Cfiltin (fin 0) 3.183n
#Lfilt (fin fout) 1.592u
#Cfiltout (fout 0) 3.183n

# L lowpass match 7 Ohm to 50 Ohm @ 3 MHz
Lfilt (fin out) 0.92u
Cfilt (out 0) 2629p

# 2:5 turn FT50-43
#Ltin (fout 0) 1.76u
#Ltout (out 0) 11.0u
#Kt Ltin Ltout 1

# Analysis=====================================================================
#.print dc v(g) i(m1)
#.dc
#
#.print ac v(g) v(out)
#.ac 3e6

.print tran v(out) i(Rl)
.tran 10000n 11000n 3n > /tmp/10W.txt

#.print ac v(out)
#.ac 1e6 9e6 0.1e6 > /tmp/10W.txt

